sectionalized/peak_load/100pc/TNB_DUMA_EXP_SEQVOLTAGES.CSV
Bus,  V1,  p.u.,Base kV, V2, %V2/V1, V0, %V0/V1, Vresidual, %NEMA
"PPU_DUMA_33KV",    18891.2,   0.99153,    33.00, 1.33183E-005, 7.05E-008, 1.23939E-006, 6.561E-009, 3.71815E-006, 4.276E-008
"PPU_DUMA_11KV_A",    6185.45,   0.97396,    11.00, 5.50348E-006, 8.897E-008, 1.42915E-007, 2.311E-009, 4.28746E-007, 4.242E-008
"PPU_DUMA_11KV_B",     6043.5,    0.9516,    11.00, 1.65982E-005, 2.746E-007, 4.81623E-005, 7.969E-007, 0.000144487, 2.12E-007
"RPPLNGI2",    6171.44,   0.97175,    11.00, 1.66108E-005, 2.692E-007, 4.91474E-005, 7.964E-007, 0.000147442, 2.054E-007
"PDTJLNMASJID",    6268.46,   0.98703,    11.00, 1.66233E-005, 2.652E-007, 4.9892E-005, 7.959E-007, 0.000149676, 2.007E-007
"BELLA",    6333.61,   0.99728,    11.00, 1.66331E-005, 2.626E-007, 5.03911E-005, 7.956E-007, 0.000151173, 1.976E-007
"PSTPDGN",    6366.31,    1.0024,    11.00, 1.66384E-005, 2.614E-007, 5.06415E-005, 7.955E-007, 0.000151925, 1.961E-007
"ATRIA_1",    6236.74,   0.98203,    11.00, 1.66155E-005, 2.664E-007, 4.95732E-005, 7.949E-007, 0.00014872, 2.024E-007
"HAWKER",    6268.43,   0.98702,    11.00, 1.65537E-005, 2.641E-007, 5.03056E-005, 8.025E-007, 0.000150917, 1.984E-007
"DUMA7",    6093.58,   0.95949,    11.00, 1.85776E-005, 3.049E-007, 4.9637E-005, 8.146E-007, 0.000148911, 2.329E-007
"HAUS",    6202.42,   0.97663,    11.00, 2.16192E-005, 3.486E-007, 0.000252687, 4.074E-006, 0.00075806, 3.046E-007
"DUMA6",    6499.17,    1.0234,    11.00, 3.6494E-005, 5.615E-007, 0.00109885, 1.691E-005, 0.00329655, 5.378E-007
"DUMA13",    6770.73,    1.0661,    11.00, 5.49652E-005, 8.118E-007,  0.0020138, 2.974E-005, 0.00604141, 7.65E-007
"SSU_DUMA5_IM2",    6804.13,    1.0714,    11.00, 5.83101E-005, 8.57E-007, 0.00202484, 2.976E-005, 0.00607451, 8.086E-007
"PDTLITRAK",    6378.21,    1.0043,    11.00, 1.65104E-005, 2.589E-007, 5.16669E-005, 8.101E-007, 0.000155001, 1.927E-007
"DUMA12",    6516.08,     1.026,    11.00, 1.64611E-005, 2.526E-007, 5.31427E-005, 8.156E-007, 0.000159428, 1.851E-007
"TMNGH4",     6649.9,    1.0471,    11.00, 1.64243E-005, 2.47E-007, 6.87549E-005, 1.034E-006, 0.000206265, 1.794E-007
"SSU_TMEGAH3_IR1",    6703.16,    1.0555,    11.00, 1.64008E-005, 2.447E-007, 7.51566E-005, 1.121E-006, 0.00022547, 1.771E-007
"TMNGH2",    6725.34,     1.059,    11.00, 1.63875E-005, 2.437E-007, 7.7876E-005, 1.158E-006, 0.000233628, 1.763E-007
"SSU_UPTWRES_IM2",    6093.77,   0.95952,    11.00, 1.65843E-005, 2.722E-007, 5.27902E-005, 8.663E-007, 0.000158371, 2.09E-007
"MAYBANK",     6171.5,   0.97176,    11.00, 1.65783E-005, 2.686E-007, 5.33764E-005, 8.649E-007, 0.000160129, 2.049E-007
"DUMA8",     6186.4,   0.97411,    11.00, 1.65817E-005, 2.68E-007, 5.45409E-005, 8.816E-007, 0.000163623, 2.043E-007
"DUMA9",    6274.57,   0.98799,    11.00, 1.66357E-005, 2.651E-007, 4.99466E-005, 7.96E-007, 0.00014984, 2.006E-007
"DUMA1",    6370.23,    1.0031,    11.00, 1.66541E-005, 2.614E-007, 5.06762E-005, 7.955E-007, 0.000152029, 1.962E-007
"ELITE",    6404.61,    1.0085,    11.00, 1.66612E-005, 2.601E-007, 5.09376E-005, 7.953E-007, 0.000152813, 1.947E-007
"PAMDRA",     6200.5,   0.97633,    11.00, 5.51455E-006, 8.894E-008, 1.43423E-007, 2.313E-009, 4.30271E-007, 4.238E-008
"DUMA4",    6250.85,   0.98425,    11.00, 5.55243E-006, 8.883E-008, 1.94657E-007, 3.114E-009, 5.83971E-007, 4.226E-008
"PLSDRA",    6360.31,    1.0015,    11.00, 5.63656E-006, 8.862E-008, 3.8038E-007, 5.981E-009, 1.14114E-006, 4.205E-008
"PRMTE",    6281.95,   0.98915,    11.00, 5.5743E-006, 8.874E-008, 3.01848E-007, 4.805E-009, 9.05544E-007, 4.214E-008
"PRMTA",    6299.44,   0.99191,    11.00, 5.58725E-006, 8.869E-008, 3.05199E-007, 4.845E-009, 9.15598E-007, 4.209E-008
"PMONTB",    6316.02,   0.99452,    11.00, 5.59983E-006, 8.866E-008, 3.33042E-007, 5.273E-009, 9.99124E-007, 4.206E-008
"PLNGI_B",    6263.46,   0.98624,    11.00, 5.55949E-006, 8.876E-008, 1.45277E-007, 2.319E-009, 4.35831E-007, 4.218E-008
"PLNGI_D",    6304.99,   0.99278,    11.00, 5.58944E-006, 8.865E-008, 1.46817E-007, 2.329E-009, 4.40453E-007, 4.206E-008
"SPRK9",    6455.39,    1.0165,    11.00, 5.7033E-006, 8.835E-008, 1.64895E-007, 2.554E-009, 4.94685E-007, 4.172E-008
"BOMBA",    6471.78,     1.019,    11.00, 5.71575E-006, 8.832E-008, 1.79727E-007, 2.777E-009, 5.39182E-007, 4.168E-008
"SPRK8",    6512.64,    1.0255,    11.00, 5.74699E-006, 8.824E-008, 2.3071E-007, 3.542E-009, 6.92128E-007, 4.161E-008
"SSU_DSARCNTR_IR1",    6226.28,   0.98038,    11.00, 5.53256E-006, 8.886E-008, 1.43806E-007, 2.31E-009, 4.31419E-007, 4.229E-008
"DUMA10",    6362.56,    1.0018,    11.00, 5.63207E-006, 8.852E-008, 1.51089E-007, 2.375E-009, 4.53268E-007, 4.192E-008
"BALAIPOLIS",    6364.44,    1.0021,    11.00, 5.63342E-006, 8.851E-008, 1.51201E-007, 2.376E-009, 4.53604E-007, 4.191E-008
"SSU_UPTWRES_IR1",    6375.75,    1.0039,    11.00, 5.64821E-006, 8.859E-008, 3.8354E-007, 6.016E-009, 1.15062E-006, 4.201E-008
"PPU_DUMA_VCB1",          0,         0,    33.00,          0,        0,          0,        0,          0,        0
